Version 4
SHEET 1 880 680
WIRE 112 -176 64 -176
WIRE 352 -176 272 -176
WIRE 64 -160 64 -176
WIRE 352 -160 352 -176
WIRE 224 -96 192 -96
WIRE 64 -80 64 -96
WIRE 112 -80 64 -80
WIRE 352 -80 352 -96
WIRE 352 -80 272 -80
WIRE 272 -48 208 -48
WIRE 352 -48 272 -48
WIRE 160 -32 160 -160
WIRE 160 -32 64 -32
WIRE 352 -32 352 -48
WIRE 112 16 64 16
WIRE 64 32 64 16
WIRE 160 32 160 -32
WIRE 352 48 352 32
WIRE 352 48 272 48
WIRE 224 64 224 32
WIRE 304 64 224 64
WIRE 208 80 208 -48
WIRE 240 80 208 80
WIRE 304 96 304 64
WIRE 304 96 288 96
WIRE 352 96 304 96
WIRE 64 112 64 96
WIRE 112 112 64 112
WIRE 192 160 192 -96
WIRE 192 160 64 160
WIRE 192 176 192 160
WIRE 352 176 352 160
WIRE 352 176 240 176
WIRE 176 224 64 224
WIRE 352 224 272 224
SYMBOL Misc\\DIP14 208 -64 R0
SYMATTR InstName CD4007
SYMBOL pmos 224 -176 R0
WINDOW 0 56 32 Invisible 2
WINDOW 3 56 72 Invisible 2
SYMATTR InstName M1
SYMBOL pmos 224 -48 R0
WINDOW 0 56 32 Invisible 2
WINDOW 3 56 72 Invisible 2
SYMATTR InstName M2
SYMBOL pmos 160 -80 R180
WINDOW 0 56 32 Invisible 2
WINDOW 3 56 72 Invisible 2
SYMATTR InstName M3
SYMBOL nmos 160 112 R180
WINDOW 0 56 32 Invisible 2
WINDOW 3 56 72 Invisible 2
SYMATTR InstName M4
SYMBOL nmos 272 176 R90
WINDOW 0 56 32 Invisible 2
WINDOW 3 56 72 Invisible 2
SYMATTR InstName M5
SYMBOL nmos 288 176 R180
WINDOW 0 56 32 Invisible 2
WINDOW 3 56 72 Invisible 2
SYMATTR InstName M6
