Version 4
SHEET 1 880 680
WIRE 112 -256 -336 -256
WIRE 640 -240 352 -240
WIRE 640 -208 640 -240
WIRE -336 -192 -336 -256
WIRE 112 -64 112 -256
WIRE 352 16 352 -240
WIRE 112 96 112 16
WIRE 304 96 112 96
WIRE 112 128 112 96
WIRE 352 160 352 112
WIRE 448 160 352 160
WIRE -64 208 -224 208
WIRE 64 208 -64 208
WIRE 352 240 352 160
WIRE 464 240 352 240
WIRE 624 240 544 240
WIRE 352 256 352 240
WIRE 624 272 624 240
WIRE -224 288 -224 208
WIRE -64 288 -64 208
WIRE 112 304 112 224
WIRE 112 304 64 304
WIRE 160 304 112 304
WIRE 64 336 64 304
WIRE 160 336 160 304
WIRE -336 448 -336 -112
WIRE -224 448 -224 368
WIRE -224 448 -336 448
WIRE -64 448 -64 368
WIRE -64 448 -224 448
WIRE 64 448 64 416
WIRE 64 448 -64 448
WIRE 160 448 160 416
WIRE 160 448 64 448
WIRE 352 448 352 336
WIRE 352 448 160 448
WIRE 624 448 624 352
WIRE 624 448 352 448
FLAG 448 160 Vout
IOPIN 448 160 Out
FLAG 160 448 0
FLAG 640 -128 0
SYMBOL nmos 64 128 R0
SYMATTR InstName M1
SYMATTR Value CMOSN
SYMBOL pmos 304 16 R0
SYMATTR InstName M2
SYMATTR Value CMOSP
SYMBOL res 48 320 R0
SYMATTR InstName R1a
SYMATTR Value 1k
SYMBOL res 144 320 R0
SYMATTR InstName R3a
SYMATTR Value 3k
SYMBOL res 336 240 R0
SYMATTR InstName R1b
SYMATTR Value 1k
SYMBOL res 560 224 R90
WINDOW 0 0 56 VBottom 2
WINDOW 3 32 56 VTop 2
SYMATTR InstName R3b
SYMATTR Value 3k
SYMBOL res 640 368 R180
WINDOW 0 36 76 Left 2
WINDOW 3 36 40 Left 2
SYMATTR InstName R4
SYMATTR Value 1k
SYMBOL voltage -224 272 R0
WINDOW 3 24 152 Left 2
WINDOW 123 24 124 Left 2
WINDOW 39 0 0 Left 2
SYMATTR InstName V1
SYMATTR Value SINE(2 .3 60)
SYMBOL res -80 272 R0
SYMATTR InstName R5
SYMATTR Value 100k
SYMBOL res 96 -80 R0
SYMATTR InstName R2
SYMATTR Value 100k
SYMBOL voltage -336 -208 R0
WINDOW 123 0 0 Left 2
WINDOW 39 0 0 Left 2
SYMATTR InstName V2
SYMATTR Value 10
SYMBOL voltage 640 -224 R0
WINDOW 123 0 0 Left 2
WINDOW 39 0 0 Left 2
SYMATTR InstName V3
SYMATTR Value 10
TEXT 712 -24 Left 2 !.tran 0 .1 0 .1
