Version 4
SHEET 1 2560 804
WIRE 880 -608 880 -672
WIRE -272 -576 -352 -576
WIRE -208 -576 -272 -576
WIRE 1376 -576 1360 -576
WIRE 1520 -576 1456 -576
WIRE 1728 -560 1712 -560
WIRE 1872 -560 1808 -560
WIRE 880 -496 880 -528
WIRE 880 -496 768 -496
WIRE 768 -480 768 -496
WIRE 880 -464 880 -496
WIRE -256 -400 -304 -400
WIRE -160 -400 -256 -400
WIRE -64 -400 -160 -400
WIRE 64 -400 16 -400
WIRE 96 -400 64 -400
WIRE 192 -400 160 -400
WIRE 368 -400 192 -400
WIRE 1248 -400 1104 -400
WIRE 1360 -400 1360 -576
WIRE 1360 -400 1328 -400
WIRE 1392 -400 1360 -400
WIRE 1520 -384 1520 -576
WIRE 1520 -384 1456 -384
WIRE 1600 -384 1520 -384
WIRE 1712 -384 1712 -560
WIRE 1712 -384 1680 -384
WIRE 1744 -384 1712 -384
WIRE 368 -368 368 -400
WIRE 1104 -368 1104 -400
WIRE 1392 -368 1360 -368
WIRE 1872 -368 1872 -560
WIRE 1872 -368 1808 -368
WIRE 1952 -368 1872 -368
WIRE 2064 -368 1952 -368
WIRE -256 -352 -256 -400
WIRE 1744 -352 1712 -352
WIRE 1952 -352 1952 -368
WIRE 880 -336 880 -384
WIRE 2064 -336 2064 -368
WIRE 64 -320 64 -400
WIRE 192 -320 192 -400
WIRE 1360 -320 1360 -368
WIRE 1712 -304 1712 -352
WIRE -160 -256 -160 -400
WIRE -144 -256 -160 -256
WIRE -16 -256 -144 -256
WIRE 432 -256 272 -256
WIRE 576 -256 432 -256
WIRE 656 -256 576 -256
WIRE 1104 -208 1104 -288
WIRE 1952 -208 1952 -272
WIRE 2016 -208 1952 -208
WIRE 2064 -208 2064 -272
WIRE 2064 -208 2016 -208
WIRE 576 -192 576 -256
WIRE -144 -176 -144 -256
WIRE -16 -176 -144 -176
WIRE 432 -176 432 -256
WIRE -256 -160 -256 -288
WIRE 2016 -144 2016 -208
WIRE 576 -112 576 -128
WIRE 336 -96 272 -96
WIRE 432 -32 432 -96
WIRE 128 16 128 -32
WIRE 336 96 336 -96
WIRE 432 96 432 48
WIRE 432 96 336 96
FLAG -128 -576 Vs
FLAG -304 -400 Vs
FLAG 656 -256 Vdd
FLAG 368 -304 0
FLAG -352 -576 0
FLAG -272 -576 DGND
FLAG 576 -112 DGND
FLAG -256 -160 DGND
FLAG 128 16 DGND
FLAG 1104 -208 0
FLAG 1424 -352 Vss1
FLAG 1424 -416 Vdd1
FLAG 768 -480 0
FLAG 880 -672 Vdd1
FLAG 880 -336 Vss1
FLAG 2016 -144 0
FLAG 1360 -320 0
FLAG 1776 -336 Vss1
FLAG 1776 -400 Vdd1
FLAG 1712 -304 0
SYMBOL voltage -112 -576 R90
WINDOW 0 -32 56 VBottom 2
WINDOW 3 32 56 VTop 2
WINDOW 123 0 0 Left 2
WINDOW 39 0 0 Left 2
SYMATTR InstName V1
SYMATTR Value 5
SYMBOL PowerProducts\\LT3495 128 -176 R0
SYMATTR InstName U1
SYMBOL cap -272 -352 R0
SYMATTR InstName C1
SYMATTR Value 4.7µ
SYMBOL cap 352 -368 R0
SYMATTR InstName C2
SYMATTR Value 2.2µ
SYMBOL cap 560 -192 R0
SYMATTR InstName C3
SYMATTR Value 1µ
SYMBOL ind -80 -384 R270
WINDOW 0 32 56 VTop 2
WINDOW 3 5 56 VBottom 2
SYMATTR InstName L1
SYMATTR Value 10µ
SYMBOL res 416 -192 R0
SYMATTR InstName R1
SYMATTR Value 1Meg
SYMATTR SpiceLine tol=1 pwr=0.1
SYMBOL schottky 96 -384 R270
WINDOW 0 32 32 VTop 2
WINDOW 3 0 32 VBottom 2
SYMATTR InstName D1
SYMATTR Value MBR0530L
SYMATTR Description Diode
SYMATTR Type diode
SYMBOL res 416 -48 R0
SYMATTR InstName R2
SYMATTR Value 1Meg
SYMBOL voltage 1104 -384 R0
WINDOW 3 24 96 Invisible 2
WINDOW 123 0 0 Left 2
WINDOW 39 0 0 Left 2
SYMATTR Value PWL file=mdac_data_new.txt
SYMATTR InstName VMDAC
SYMBOL Opamps\\LT1208 1424 -448 R0
SYMATTR InstName U2
SYMBOL res 1344 -416 R90
WINDOW 0 0 56 VBottom 2
WINDOW 3 32 56 VTop 2
SYMATTR InstName R3
SYMATTR Value 3k
SYMATTR SpiceLine tol=1 pwr=0.1
SYMBOL res 1472 -592 R90
WINDOW 0 0 56 VBottom 2
WINDOW 3 32 56 VTop 2
SYMATTR InstName R4
SYMATTR Value 3k
SYMATTR SpiceLine tol=1 pwr=0.1
SYMBOL res 1936 -368 R0
SYMATTR InstName R5
SYMATTR Value 390
SYMBOL cap 2048 -336 R0
SYMATTR InstName C4
SYMATTR Value 12.21n
SYMBOL voltage 880 -624 R0
WINDOW 123 0 0 Left 2
WINDOW 39 0 0 Left 2
SYMATTR InstName V4
SYMATTR Value 15
SYMBOL voltage 880 -480 R0
WINDOW 123 0 0 Left 2
WINDOW 39 0 0 Left 2
SYMATTR InstName V3
SYMATTR Value 15
SYMBOL Opamps\\LT1208 1776 -432 R0
SYMATTR InstName U3
SYMBOL res 1696 -400 R90
WINDOW 0 0 56 VBottom 2
WINDOW 3 32 56 VTop 2
SYMATTR InstName R6
SYMATTR Value 3k
SYMATTR SpiceLine tol=1 pwr=0.1
SYMBOL res 1824 -576 R90
WINDOW 0 0 56 VBottom 2
WINDOW 3 32 56 VTop 2
SYMATTR InstName R7
SYMATTR Value 5k
SYMATTR SpiceLine tol=1 pwr=0.1
TEXT -480 32 Left 2 !.tran 0 0.0301 0 .001
TEXT -280 -688 Left 2 ;USB Power Supply
TEXT 8 -504 Left 2 ;5 V to 34 V Converter
TEXT 1560 -704 Left 2 ;Amplifier
