Version 4
SHEET 1 2040 896
WIRE 160 128 0 128
WIRE 368 128 240 128
WIRE 576 128 368 128
WIRE 896 128 832 128
WIRE 1056 128 896 128
WIRE 1184 128 1056 128
WIRE 1312 128 1184 128
WIRE 1920 128 1600 128
WIRE 0 160 0 128
WIRE 1920 192 1600 192
WIRE 1056 208 1056 128
WIRE 1920 256 1600 256
WIRE 0 288 0 240
WIRE 1920 320 1600 320
WIRE 368 352 368 128
WIRE 704 352 704 224
WIRE 896 352 896 128
WIRE 896 352 704 352
WIRE 1248 384 1184 384
WIRE 1312 384 1248 384
WIRE 1056 416 1056 272
WIRE 1056 416 416 416
WIRE 704 448 704 352
WIRE 1248 464 1248 384
WIRE 1920 464 1248 464
WIRE 1056 480 1056 416
WIRE 1184 560 1184 384
WIRE 704 576 704 528
FLAG 0 288 0
FLAG 704 576 0
FLAG 368 496 0
FLAG 1056 560 0
FLAG 1184 560 0
FLAG 1184 128 9V
FLAG 1920 320 CLK
IOPIN 1920 320 Out
FLAG 1920 256 CS
IOPIN 1920 256 Out
FLAG 1920 192 SD
IOPIN 1920 192 Out
FLAG 1920 128 Vdd
IOPIN 1920 128 Out
FLAG 1920 464 GND
IOPIN 1920 464 Out
SYMBOL voltage 0 144 R0
WINDOW 123 0 0 Left 2
WINDOW 39 0 0 Left 2
SYMATTR InstName V1
SYMATTR Value 36
SYMBOL Misc\\SCR 384 352 M0
SYMATTR InstName U1
SYMATTR Prefix DHSCR
SYMATTR SpiceModel QNSCR
SYMATTR Value B520C
SYMBOL csw 160 128 R270
WINDOW 0 32 40 VTop 2
WINDOW 3 -32 40 VBottom 2
SYMATTR InstName W1
SYMBOL PowerProducts\\LT1086H 704 128 R0
SYMATTR InstName Voltage_Regulator
SYMBOL zener 1072 272 R180
WINDOW 0 24 64 Left 2
WINDOW 3 24 0 Left 2
SYMATTR InstName D1
SYMATTR Value BZX84C10L
SYMBOL res 688 432 R0
SYMATTR InstName R1
SYMATTR Value 500
SYMBOL res 1040 464 R0
SYMATTR InstName R2
SYMATTR Value 25
SYMBOL res 352 400 R0
SYMATTR InstName R3
SYMATTR Value 36
SYMBOL Misc\\DIP10 1456 224 R0
SYMATTR InstName Arduino
SYMBOL voltage 0 784 R0
SYMATTR InstName V2
TEXT -32 600 Left 2 !.tran 0 0.1 0 0.01
